<?xml version="1.0" encoding="UTF-8"?>

<!-- generated on 2025-04-11 00:04:20 by Eclipse SUMO netedit Version 1.22.0
-->

<routes xmlns:xsi="http://www.w3.org/2001/XMLSchema-instance" xsi:noNamespaceSchemaLocation="http://sumo.dlr.de/xsd/routes_file.xsd">
    <!-- Vehicles, persons and containers (sorted by depart) -->
    <flow id="f_0"  begin="0.00" from="E0" to="E2" end="90.00" number="1"/>
    <flow id="f_1" begin="0.00" from="E0" to="E0.156" end="90.00" number="1"/>
    <flow id="f_2" begin="0.00" from="-E1" to="-E00" end="90.00" number="19"/>
    <flow id="f_3" begin="0.00" from="-E1" to="E2" end="90.00" number="19"/>
    <flow id="f_4" begin="0.00" from="-E0" to="E2" end="90.00" number="10"/>
    <flow id="f_5" begin="0.00" from="-E0" to="-E00" end="90.00" number="10"/>
    <flow id="f_6" begin="0.00" from="-E2" to="-E00" end="90.00" number="3"/>
    <flow id="f_7" begin="0.00" from="-E2" to="E1" end="90.00" number="3"/>
</routes>
