<?xml version='1.0' encoding='UTF-8'?>
<net xmlns:xsi="http://www.w3.org/2001/XMLSchema-instance" version="1.20" junctionCornerDetail="5" limitTurnSpeed="5.50" xsi:noNamespaceSchemaLocation="http://sumo.dlr.de/xsd/net_file.xsd">

    <location netOffset="0.00,0.00" convBoundary="-100.74,-208.58,345.37,173.51" origBoundary="-10000000000.00,-10000000000.00,10000000000.00,10000000000.00" projParameter="!" />

    <edge id=":clusterJ7_clusterJ3_J5_0" function="internal">
        <lane id=":clusterJ7_clusterJ3_J5_0_0" index="0" speed="6.52" length="9.05" shape="120.28,9.84 117.83,10.19 116.08,11.24 115.02,12.99 114.66,15.45" />
    </edge>
    <edge id=":clusterJ7_clusterJ3_J5_1" function="internal">
        <lane id=":clusterJ7_clusterJ3_J5_1_0" index="0" speed="13.89" length="20.81" shape="120.28,9.84 99.48,9.81" />
        <lane id=":clusterJ7_clusterJ3_J5_1_1" index="1" speed="13.89" length="20.81" shape="120.30,6.64 99.48,6.61" />
    </edge>
    <edge id=":clusterJ7_clusterJ3_J5_3" function="internal">
        <lane id=":clusterJ7_clusterJ3_J5_3_0" index="0" speed="9.28" length="19.37" shape="120.30,6.64 115.06,5.88 111.31,3.61 109.06,-0.15 108.29,-5.41" />
    </edge>
    <edge id=":clusterJ7_clusterJ3_J5_4" function="internal">
        <lane id=":clusterJ7_clusterJ3_J5_4_0" index="0" speed="6.54" length="9.10" shape="114.69,-5.43 115.05,-2.95 116.11,-1.18 117.86,-0.12 120.32,0.24" />
    </edge>
    <edge id=":clusterJ7_clusterJ3_J5_5" function="internal">
        <lane id=":clusterJ7_clusterJ3_J5_5_0" index="0" speed="13.89" length="20.87" shape="114.69,-5.43 114.66,15.45" />
        <lane id=":clusterJ7_clusterJ3_J5_5_1" index="1" speed="13.89" length="20.87" shape="111.49,-5.42 111.46,15.44" />
    </edge>
    <edge id=":clusterJ7_clusterJ3_J5_7" function="internal">
        <lane id=":clusterJ7_clusterJ3_J5_7_0" index="0" speed="9.26" length="19.40" shape="111.49,-5.42 110.75,-0.16 108.51,3.60 104.75,5.86 99.48,6.61" />
    </edge>
    <edge id=":clusterJ7_clusterJ3_J5_8" function="internal">
        <lane id=":clusterJ7_clusterJ3_J5_8_0" index="0" speed="6.51" length="9.05" shape="99.48,0.21 101.94,-0.14 103.70,-1.19 104.75,-2.94 105.09,-5.40" />
    </edge>
    <edge id=":clusterJ7_clusterJ3_J5_9" function="internal">
        <lane id=":clusterJ7_clusterJ3_J5_9_0" index="0" speed="13.89" length="20.83" shape="99.48,0.21 120.32,0.24" />
        <lane id=":clusterJ7_clusterJ3_J5_9_1" index="1" speed="13.89" length="20.83" shape="99.48,3.41 120.31,3.44" />
    </edge>
    <edge id=":clusterJ7_clusterJ3_J5_11" function="internal">
        <lane id=":clusterJ7_clusterJ3_J5_11_0" index="0" speed="9.25" length="19.38" shape="99.48,3.41 104.74,4.16 108.49,6.42 110.73,10.18 111.46,15.44" />
    </edge>
    <edge id=":clusterJ7_clusterJ3_J5_12" function="internal">
        <lane id=":clusterJ7_clusterJ3_J5_12_0" index="0" speed="6.50" length="9.03" shape="105.06,15.42 104.72,12.96 103.68,11.21 101.93,10.16 99.48,9.81" />
    </edge>
    <edge id=":clusterJ7_clusterJ3_J5_13" function="internal">
        <lane id=":clusterJ7_clusterJ3_J5_13_0" index="0" speed="13.89" length="20.82" shape="105.06,15.42 105.09,-5.40" />
        <lane id=":clusterJ7_clusterJ3_J5_13_1" index="1" speed="13.89" length="20.82" shape="108.26,15.43 108.29,-5.41" />
    </edge>
    <edge id=":clusterJ7_clusterJ3_J5_15" function="internal">
        <lane id=":clusterJ7_clusterJ3_J5_15_0" index="0" speed="9.26" length="19.37" shape="108.26,15.43 109.03,10.17 111.30,6.42 115.05,4.18 120.31,3.44" />
    </edge>

    <edge id="-E0" from="J1" to="clusterJ7_clusterJ3_J5" priority="-1" shape="345.37,5.79 109.83,5.01">
        <lane id="-E0_0" index="0" speed="13.89" length="225.07" shape="345.35,10.59 120.28,9.84" />
        <lane id="-E0_1" index="1" speed="13.89" length="225.07" shape="345.36,7.39 120.30,6.64" />
    </edge>
    <edge id="-E00" from="clusterJ7_clusterJ3_J5" to="J0" priority="-1" shape="109.83,5.01 -100.74,5.02">
        <lane id="-E00_0" index="0" speed="13.89" length="200.22" shape="99.48,9.81 -100.74,9.82" />
        <lane id="-E00_1" index="1" speed="13.89" length="200.22" shape="99.48,6.61 -100.74,6.62" />
    </edge>
    <edge id="-E1" from="J6" to="clusterJ7_clusterJ3_J5" priority="-1" shape="109.20,-208.58 109.89,-5.23">
        <lane id="-E1_0" index="0" speed="13.89" length="203.17" shape="114.00,-208.60 114.69,-5.43" />
        <lane id="-E1_1" index="1" speed="13.89" length="203.17" shape="110.80,-208.59 111.49,-5.42" />
    </edge>
    <edge id="-E2" from="J8" to="clusterJ7_clusterJ3_J5" priority="-1" shape="109.27,173.51 109.88,11.34">
        <lane id="-E2_0" index="0" speed="13.89" length="158.08" shape="104.47,173.49 105.06,15.42" />
        <lane id="-E2_1" index="1" speed="13.89" length="158.08" shape="107.67,173.50 108.26,15.43" />
    </edge>
    <edge id="E0" from="J0" to="clusterJ7_clusterJ3_J5" priority="-1" shape="-100.74,5.02 109.83,5.01">
        <lane id="E0_0" index="0" speed="13.89" length="200.22" shape="-100.74,0.22 99.48,0.21" />
        <lane id="E0_1" index="1" speed="13.89" length="200.22" shape="-100.74,3.42 99.48,3.41" />
    </edge>
    <edge id="E0.156" from="clusterJ7_clusterJ3_J5" to="J1" priority="-1" shape="109.83,5.01 345.37,5.79">
        <lane id="E0.156_0" index="0" speed="13.89" length="225.07" shape="120.32,0.24 345.39,0.99" />
        <lane id="E0.156_1" index="1" speed="13.89" length="225.07" shape="120.31,3.44 345.38,4.19" />
    </edge>
    <edge id="E1" from="clusterJ7_clusterJ3_J5" to="J6" priority="-1" shape="109.89,-5.23 109.20,-208.58">
        <lane id="E1_0" index="0" speed="13.89" length="203.17" shape="105.09,-5.40 104.40,-208.56" />
        <lane id="E1_1" index="1" speed="13.89" length="203.17" shape="108.29,-5.41 107.60,-208.57" />
    </edge>
    <edge id="E2" from="clusterJ7_clusterJ3_J5" to="J8" priority="-1" shape="109.88,11.34 109.27,173.51">
        <lane id="E2_0" index="0" speed="13.89" length="158.08" shape="114.66,15.45 114.07,173.53" />
        <lane id="E2_1" index="1" speed="13.89" length="158.08" shape="111.46,15.44 110.87,173.52" />
    </edge>

    <tlLogic id="clusterJ7_clusterJ3_J5" type="static" programID="0" offset="0">
        <phase duration="120" state="rrrrrrrrrrrrrrrrr" />
        
        <phase duration="75" state="rrrrGGGgrrrrrrrrr" />
        <phase duration="3" state="rrrryyyyrrrrrrrrr" />
        <phase duration="75" state="rrrrrrrrGGGgrrrrr" />
        <phase duration="3" state="yyyyrrrryyyyrrrrr" />
        <phase duration="75" state="GGGgrrrrrrrrrrrrr" />
        <phase duration="3" state="yyyyrrrrrrrrrrrrr" />
        <phase duration="75" state="rrrrrrrrrrrrGGGGg" />
        <phase duration="3" state="rrrrrrrrrrrryyyyy" />
        
        <phase duration="75" state="rrrrGGGgrrrrrrrrr" />
        <phase duration="3" state="rrrryyyyrrrrrrrrr" />
        <phase duration="75" state="rrrrrrrrGGGgrrrrr" />
        <phase duration="3" state="yyyyrrrryyyyrrrrr" />
        <phase duration="75" state="GGGgrrrrrrrrrrrrr" />
        <phase duration="3" state="yyyyrrrrrrrrrrrrr" />
        <phase duration="75" state="rrrrrrrrrrrrGGGGg" />
        <phase duration="3" state="rrrrrrrrrrrryyyyy" />
        
        <phase duration="75" state="rrrrGGGgrrrrrrrrr" />
        <phase duration="3" state="rrrryyyyrrrrrrrrr" />
        <phase duration="75" state="rrrrrrrrGGGgrrrrr" />
        <phase duration="3" state="yyyyrrrryyyyrrrrr" />
        <phase duration="75" state="GGGgrrrrrrrrrrrrr" />
        <phase duration="3" state="yyyyrrrrrrrrrrrrr" />
        <phase duration="75" state="rrrrrrrrrrrrGGGGg" />
        <phase duration="3" state="rrrrrrrrrrrryyyyy" />
    </tlLogic>

    <junction id="J0" type="dead_end" x="-100.74" y="5.02" incLanes="-E00_0 -E00_1" intLanes="" shape="-100.74,5.02 -100.74,11.42 -100.74,5.02" />
    <junction id="J1" type="dead_end" x="345.37" y="5.79" incLanes="E0.156_0 E0.156_1" intLanes="" shape="345.37,5.79 345.39,-0.61 345.37,5.79" />
    <junction id="J6" type="dead_end" x="109.20" y="-208.58" incLanes="E1_0 E1_1" intLanes="" shape="109.20,-208.58 102.80,-208.56 109.20,-208.58" />
    <junction id="J8" type="dead_end" x="109.27" y="173.51" incLanes="E2_0 E2_1" intLanes="" shape="109.27,173.51 115.67,173.53 109.27,173.51" />
    <junction id="clusterJ7_clusterJ3_J5" type="traffic_light" x="109.87" y="5.61" incLanes="-E0_0 -E0_1 -E1_0 -E1_1 E0_0 E0_1 -E2_0 -E2_1" intLanes=":clusterJ7_clusterJ3_J5_0_0 :clusterJ7_clusterJ3_J5_1_0 :clusterJ7_clusterJ3_J5_1_1 :clusterJ7_clusterJ3_J5_3_0 :clusterJ7_clusterJ3_J5_4_0 :clusterJ7_clusterJ3_J5_5_0 :clusterJ7_clusterJ3_J5_5_1 :clusterJ7_clusterJ3_J5_7_0 :clusterJ7_clusterJ3_J5_8_0 :clusterJ7_clusterJ3_J5_9_0 :clusterJ7_clusterJ3_J5_9_1 :clusterJ7_clusterJ3_J5_11_0 :clusterJ7_clusterJ3_J5_12_0 :clusterJ7_clusterJ3_J5_13_0 :clusterJ7_clusterJ3_J5_13_1 :clusterJ7_clusterJ3_J5_15_0" shape="120.28,11.44 120.32,-1.36 118.09,-1.81 117.30,-2.38 116.74,-3.17 116.41,-4.19 116.29,-5.43 103.49,-5.39 103.05,-3.17 102.49,-2.39 101.71,-1.83 100.71,-1.50 99.48,-1.39 99.48,11.41 101.70,11.85 102.48,12.41 103.03,13.19 103.36,14.19 103.46,15.41 116.26,15.46 116.72,13.22 117.28,12.44 118.06,11.88 119.06,11.55">
        <request index="0" response="0000000000000000" foes="0000000001100000" cont="0" />
        <request index="1" response="0000000000000000" foes="1111100011100000" cont="0" />
        <request index="2" response="0000000000000000" foes="1111100011100000" cont="0" />
        <request index="3" response="0000011000000000" foes="1110011011100000" cont="0" />
        <request index="4" response="0000011000000000" foes="0000011000000000" cont="0" />
        <request index="5" response="0000111000001111" foes="1000111000001111" cont="0" />
        <request index="6" response="0000111000001111" foes="1000111000001111" cont="0" />
        <request index="7" response="0110111000001110" foes="0110111000001110" cont="0" />
        <request index="8" response="0000000000000000" foes="0110000000000000" cont="0" />
        <request index="9" response="0000000000000000" foes="1110000011111000" cont="0" />
        <request index="10" response="0000000000000000" foes="1110000011111000" cont="0" />
        <request index="11" response="0000000000000110" foes="1110000011100110" cont="0" />
        <request index="12" response="0000000000000110" foes="0000000000000110" cont="0" />
        <request index="13" response="0000111100001110" foes="0000111110001110" cont="0" />
        <request index="14" response="0000111100001110" foes="0000111110001110" cont="0" />
        <request index="15" response="0000111001101110" foes="0000111001101110" cont="0" />
    </junction>

    <connection from="-E0" to="E2" fromLane="0" toLane="0" via=":clusterJ7_clusterJ3_J5_0_0" tl="clusterJ7_clusterJ3_J5" linkIndex="4" dir="r" state="O" />
    <connection from="-E0" to="-E00" fromLane="0" toLane="0" via=":clusterJ7_clusterJ3_J5_1_0" tl="clusterJ7_clusterJ3_J5" linkIndex="5" dir="s" state="O" />
    <connection from="-E0" to="-E00" fromLane="1" toLane="1" via=":clusterJ7_clusterJ3_J5_1_1" tl="clusterJ7_clusterJ3_J5" linkIndex="6" dir="s" state="O" />
    <connection from="-E0" to="E1" fromLane="1" toLane="1" via=":clusterJ7_clusterJ3_J5_3_0" tl="clusterJ7_clusterJ3_J5" linkIndex="7" dir="l" state="o" />
    <connection from="-E1" to="E0.156" fromLane="0" toLane="0" via=":clusterJ7_clusterJ3_J5_4_0" tl="clusterJ7_clusterJ3_J5" linkIndex="8" dir="r" state="o" />
    <connection from="-E1" to="E2" fromLane="0" toLane="0" via=":clusterJ7_clusterJ3_J5_5_0" tl="clusterJ7_clusterJ3_J5" linkIndex="9" dir="s" state="o" />
    <connection from="-E1" to="E2" fromLane="1" toLane="1" via=":clusterJ7_clusterJ3_J5_5_1" tl="clusterJ7_clusterJ3_J5" linkIndex="10" dir="s" state="o" />
    <connection from="-E1" to="-E00" fromLane="1" toLane="1" via=":clusterJ7_clusterJ3_J5_7_0" tl="clusterJ7_clusterJ3_J5" linkIndex="11" dir="l" state="o" />
    <connection from="-E2" to="-E00" fromLane="0" toLane="0" via=":clusterJ7_clusterJ3_J5_12_0" tl="clusterJ7_clusterJ3_J5" linkIndex="0" dir="r" state="o" />
    <connection from="-E2" to="E1" fromLane="0" toLane="0" via=":clusterJ7_clusterJ3_J5_13_0" tl="clusterJ7_clusterJ3_J5" linkIndex="1" dir="s" state="o" />
    <connection from="-E2" to="E1" fromLane="1" toLane="1" via=":clusterJ7_clusterJ3_J5_13_1" tl="clusterJ7_clusterJ3_J5" linkIndex="2" dir="s" state="o" />
    <connection from="-E2" to="E0.156" fromLane="1" toLane="1" via=":clusterJ7_clusterJ3_J5_15_0" tl="clusterJ7_clusterJ3_J5" linkIndex="3" dir="l" state="o" />
    <connection from="E0" to="E1" fromLane="0" toLane="0" via=":clusterJ7_clusterJ3_J5_8_0" tl="clusterJ7_clusterJ3_J5" linkIndex="12" dir="r" state="O" />
    <connection from="E0" to="E0.156" fromLane="0" toLane="0" via=":clusterJ7_clusterJ3_J5_9_0" tl="clusterJ7_clusterJ3_J5" linkIndex="13" dir="s" state="O" />
    <connection from="E0" to="E0.156" fromLane="1" toLane="1" via=":clusterJ7_clusterJ3_J5_9_1" tl="clusterJ7_clusterJ3_J5" linkIndex="14" dir="s" state="O" />
    <connection from="E0" to="E2" fromLane="1" toLane="1" via=":clusterJ7_clusterJ3_J5_11_0" tl="clusterJ7_clusterJ3_J5" linkIndex="15" dir="l" state="o" />

    <connection from=":clusterJ7_clusterJ3_J5_0" to="E2" fromLane="0" toLane="0" dir="r" state="M" />
    <connection from=":clusterJ7_clusterJ3_J5_1" to="-E00" fromLane="0" toLane="0" dir="s" state="M" />
    <connection from=":clusterJ7_clusterJ3_J5_1" to="-E00" fromLane="1" toLane="1" dir="s" state="M" />
    <connection from=":clusterJ7_clusterJ3_J5_3" to="E1" fromLane="0" toLane="1" dir="l" state="M" />
    <connection from=":clusterJ7_clusterJ3_J5_4" to="E0.156" fromLane="0" toLane="0" dir="r" state="M" />
    <connection from=":clusterJ7_clusterJ3_J5_5" to="E2" fromLane="0" toLane="0" dir="s" state="M" />
    <connection from=":clusterJ7_clusterJ3_J5_5" to="E2" fromLane="1" toLane="1" dir="s" state="M" />
    <connection from=":clusterJ7_clusterJ3_J5_7" to="-E00" fromLane="0" toLane="1" dir="l" state="M" />
    <connection from=":clusterJ7_clusterJ3_J5_8" to="E1" fromLane="0" toLane="0" dir="r" state="M" />
    <connection from=":clusterJ7_clusterJ3_J5_9" to="E0.156" fromLane="0" toLane="0" dir="s" state="M" />
    <connection from=":clusterJ7_clusterJ3_J5_9" to="E0.156" fromLane="1" toLane="1" dir="s" state="M" />
    <connection from=":clusterJ7_clusterJ3_J5_11" to="E2" fromLane="0" toLane="1" dir="l" state="M" />
    <connection from=":clusterJ7_clusterJ3_J5_12" to="-E00" fromLane="0" toLane="0" dir="r" state="M" />
    <connection from=":clusterJ7_clusterJ3_J5_13" to="E1" fromLane="0" toLane="0" dir="s" state="M" />
    <connection from=":clusterJ7_clusterJ3_J5_13" to="E1" fromLane="1" toLane="1" dir="s" state="M" />
    <connection from=":clusterJ7_clusterJ3_J5_15" to="E0.156" fromLane="0" toLane="1" dir="l" state="M" />

</net>