<?xml version="1.0" encoding="UTF-8"?>
<routes xmlns:xsi="http://www.w3.org/2001/XMLSchema-instance" xsi:noNamespaceSchemaLocation="http://sumo.dlr.de/xsd/routes_file.xsd">
    <vType id="car" accel="2.6" decel="4.0" sigma="0.5" length="5.0" minGap="1.5" maxSpeed="70" color="0,1,1"/>
    <vType id="bus" accel="2.5" decel="4.0" sigma="0.5" length="6.0" minGap="1.5" maxSpeed="70" color="0,1,0"/>
    <vType id="truck" accel="2.5" decel="4.0" sigma="0.5" length="7" minGap="1" maxSpeed="70" color="1,1,0"/>
    
    <flow id="f_0" type="car" begin="0.00" from="E0" to="E2" end="90.00" number="9"/>
    <flow id="f_1" type="bus" begin="0.00" from="E0" to="E0.156" end="90.00" number="9"/>
    <flow id="f_2" type="DEFAULT_TAXITYPE" begin="0.00" from="-E1" to="-E00" end="90.00" number="14"/>
    <flow id="f_3" type="car" begin="0.00" from="-E1" to="E2" end="90.00" number="14"/>
    <flow id="f_4" type="bus" begin="0.00" from="-E0" to="E2" end="90.00" number="14"/>
    <flow id="f_5" type="DEFAULT_TAXITYPE" begin="0.00" from="-E0" to="-E00" end="90.00" number="14"/>
    <flow id="f_6" type="car" begin="0.00" from="-E2" to="-E00" end="90.00" number="1"/>
    <flow id="f_7" type="bus" begin="0.00" from="-E2" to="E1" end="90.00" number="1"/>
</routes>